!-Generator IDFEditor 1.50
!-Option SortedOrder

!-NOTE: All comments with '!-' are ignored by the IDFEditor and are generated automatically.
!-      Use '!' comments if they need to be retained when using the IDFEditor.


!-   ===========  ALL OBJECTS IN CLASS: VERSION ===========

! RefBldgWarehouseNew2004_Chicago.idf
!
! This example file is based on Version 1.3_5.0 and was transitioned to Version 6.0 using the transition utility
!
! DOE Commercial Reference Building
! Warehouse, new construction 90.1-2004
! Version 1.3_5.0
! EnergyPlus Version 6.0
! ASHRAE Standards 90.1-2004 and 62-1999
!
! Description:  Single story, three zones
! Form:         Area = 4,835 m2 (52,045 ft2); Number of Stories = 1; Shape = rectangle; Aspect ratio = 2.2
! Envelope:     Envelope thermal properties vary with climate according to ASHRAE Standard 90.1-2004.
!               Opaque constructions: metal building walls; metal building roof; slab-on-grade floor
!               Windows: window-to-wall ratio = 0.58%
!               Infiltration = 0.4 cfm/ft2 above grade wall area at 0.3 in wc (75 Pa) adjusted to 0.016 in wc (4 Pa).
!                              100% of full value when ventilation system on.
! HVAC:         PSZ-AC with gas furnace in office and fine storage,
!               unit heater and ventilation in bulk storage
!               Economizers per 90.1-2004
!
! Int. gains:   W/m2 (W/ft2)   lights         elec plug          gas plug     people
!               Office        11.8 (1.1)        8.1 (0.75)           0          5
!               Fine Storage  15.1 (1.4)        0.0 (0.0)            0          0
!               Bulk Storage   9.7 (0.9)        2.56 (0.24)          0          0
!
! Detached Shading:               None
! Daylight:                       None
! Natural Ventilation:            None
! Zonal Equipment:                ZoneHVAC:UnitHeater (gas)
! Air Primary Loops:              PSZ-AC
! Plant Loops:                    None
! System Equipment Autosize:      Yes
! Purchased Cooling:              None
! Purchased Heating:              None
! Coils:                          Coil:Cooling:DX:SingleSpeed; Coil:Heating:Fuel
! Pumps:                          None
! Boilers:                        None
! Chillers:                       None
!***** NOTICE *****
!***** The Reference Buildings were prepared as an account of work sponsored by an *****
!***** agency of the United States government. Neither the United States *****
!***** government nor any agency thereof, nor any of their employees, makes *****
!***** any warranty, express or implied, or assumes any legal liability or *****
!***** responsibility for the accuracy, completeness, or usefulness of any *****
!***** information, apparatus, product, or process disclosed, or represents *****
!***** that its use would not infringe privately owned rights. Reference *****
!***** herein to any specific commercial product, process, or service by *****
!***** trade name, trademark, manufacturer, or otherwise does not necessarily *****
!***** constitute or imply its endorsement, recommendation, or favoring by *****
!***** the United States government or any agency thereof. The views and *****
!***** opinions of authors expressed herein do not necessarily state or *****
!***** reflect those of the United States government or any agency thereof. *****
!***** Access to and use of the Reference Buildings imposes the following obligations *****
!***** on the user. The user agrees to credit DOE, NREL, PNNL, and LBNL in *****
!***** any publication(s) that that result from the use of Reference Buildings. *****
!***** However, the names of DOE/NREL/PNNL/LBNL may not be used in any *****
!***** advertising or publicity that implies endorsement or promotion of any *****
!***** products, services or commercial entities. *****
! Reference citation for the Commercial Reference Buildings:
! Deru, M.; Field, K.; Studer, D.; Benne, K.; Griffith, B.; Torcellini, P;
! Halverson, M.; Winiarski, D.; Liu, B.; Rosenberg, M.; Huang, J.;
! Yazdanian, M.; Crawley, D. (2010).
! U.S. Department of Energy Commercial Reference Building Models of the National Building Stock.
! Washington, DC: U.S. Department of Energy, Energy Efficiency and
! Renewable Energy, Office of Building Technologies.
! ***GENERAL SIMULATION PARAMETERS***
! Number of Zones: 3
Version,
    9.0;                     !- Version Identifier


!-   ===========  ALL OBJECTS IN CLASS: SIMULATIONCONTROL ===========

SimulationControl,
    YES,                     !- Do Zone Sizing Calculation
    YES,                     !- Do System Sizing Calculation
    YES,                     !- Do Plant Sizing Calculation
    YES,                     !- Run Simulation for Sizing Periods
    Yes;                     !- Run Simulation for Weather File Run Periods


!-   ===========  ALL OBJECTS IN CLASS: BUILDING ===========

Building,
    Ref Bldg Warehouse New2004_v1.3_5.0,  !- Name
    0.0000,                  !- North Axis {deg}
    City,                    !- Terrain
    0.0400,                  !- Loads Convergence Tolerance Value
    0.2000,                  !- Temperature Convergence Tolerance Value {deltaC}
    FullInteriorAndExterior, !- Solar Distribution
    40,                      !- Maximum Number of Warmup Days
    6;                       !- Minimum Number of Warmup Days


!-   ===========  ALL OBJECTS IN CLASS: SHADOWCALCULATION ===========

ShadowCalculation,
    AverageOverDaysInFrequency,  !- Calculation Method
    7,                       !- Calculation Frequency
    15000;                   !- Maximum Figures in Shadow Overlap Calculations


!-   ===========  ALL OBJECTS IN CLASS: SURFACECONVECTIONALGORITHM:INSIDE ===========

! ***MISC SIMULATION PARAMETERS***
SurfaceConvectionAlgorithm:Inside,
    TARP;                    !- Algorithm


!-   ===========  ALL OBJECTS IN CLASS: SURFACECONVECTIONALGORITHM:OUTSIDE ===========

SurfaceConvectionAlgorithm:Outside,
    DOE-2;                   !- Algorithm


!-   ===========  ALL OBJECTS IN CLASS: HEATBALANCEALGORITHM ===========

HeatBalanceAlgorithm,
    ConductionTransferFunction,  !- Algorithm
    200.0000;                !- Surface Temperature Upper Limit {C}


!-   ===========  ALL OBJECTS IN CLASS: ZONEAIRHEATBALANCEALGORITHM ===========

ZoneAirHeatBalanceAlgorithm,
    AnalyticalSolution;      !- Algorithm


!-   ===========  ALL OBJECTS IN CLASS: TIMESTEP ===========

Timestep,
    6;                       !- Number of Timesteps per Hour


!-   ===========  ALL OBJECTS IN CLASS: CONVERGENCELIMITS ===========

ConvergenceLimits,
    2,                       !- Minimum System Timestep {minutes}
    25;                      !- Maximum HVAC Iterations


!-   ===========  ALL OBJECTS IN CLASS: SITE:LOCATION ===========

! WeatherFileName=USA_IL_Chicago-OHare_TMY2.epw
Site:Location,
    USA IL-CHICAGO-OHARE,    !- Name
    41.77,                   !- Latitude {deg}
    -87.75,                  !- Longitude {deg}
    -6.00,                   !- Time Zone {hr}
    190;                     !- Elevation {m}


!-   ===========  ALL OBJECTS IN CLASS: SIZINGPERIOD:DESIGNDAY ===========

! CHICAGO_IL_USA Annual Heating 99.6%, MaxDB=-20.6°C
SizingPeriod:DesignDay,
    CHICAGO Ann Htg 99.6% Condns DB,  !- Name
    1,                       !- Month
    21,                      !- Day of Month
    WinterDesignDay,         !- Day Type
    -20.6,                   !- Maximum Dry-Bulb Temperature {C}
    0.0,                     !- Daily Dry-Bulb Temperature Range {deltaC}
    ,                        !- Dry-Bulb Temperature Range Modifier Type
    ,                        !- Dry-Bulb Temperature Range Modifier Day Schedule Name
    Wetbulb,                 !- Humidity Condition Type
    -20.6,                   !- Wetbulb or DewPoint at Maximum Dry-Bulb {C}
    ,                        !- Humidity Condition Day Schedule Name
    ,                        !- Humidity Ratio at Maximum Dry-Bulb {kgWater/kgDryAir}
    ,                        !- Enthalpy at Maximum Dry-Bulb {J/kg}
    ,                        !- Daily Wet-Bulb Temperature Range {deltaC}
    99063.,                  !- Barometric Pressure {Pa}
    4.9,                     !- Wind Speed {m/s}
    270,                     !- Wind Direction {deg}
    No,                      !- Rain Indicator
    No,                      !- Snow Indicator
    No,                      !- Daylight Saving Time Indicator
    ASHRAEClearSky,          !- Solar Model Indicator
    ,                        !- Beam Solar Day Schedule Name
    ,                        !- Diffuse Solar Day Schedule Name
    ,                        !- ASHRAE Clear Sky Optical Depth for Beam Irradiance (taub) {dimensionless}
    ,                        !- ASHRAE Clear Sky Optical Depth for Diffuse Irradiance (taud) {dimensionless}
    0.00;                    !- Sky Clearness

! CHICAGO_IL_USA Annual Cooling (WB=>MDB) .4%, MDB=31.2°C WB=25.5°C
SizingPeriod:DesignDay,
    CHICAGO Ann Clg .4% Condns WB=>MDB,  !- Name
    7,                       !- Month
    21,                      !- Day of Month
    SummerDesignDay,         !- Day Type
    31.2,                    !- Maximum Dry-Bulb Temperature {C}
    10.7,                    !- Daily Dry-Bulb Temperature Range {deltaC}
    ,                        !- Dry-Bulb Temperature Range Modifier Type
    ,                        !- Dry-Bulb Temperature Range Modifier Day Schedule Name
    Wetbulb,                 !- Humidity Condition Type
    25.5,                    !- Wetbulb or DewPoint at Maximum Dry-Bulb {C}
    ,                        !- Humidity Condition Day Schedule Name
    ,                        !- Humidity Ratio at Maximum Dry-Bulb {kgWater/kgDryAir}
    ,                        !- Enthalpy at Maximum Dry-Bulb {J/kg}
    ,                        !- Daily Wet-Bulb Temperature Range {deltaC}
    99063.,                  !- Barometric Pressure {Pa}
    5.3,                     !- Wind Speed {m/s}
    230,                     !- Wind Direction {deg}
    No,                      !- Rain Indicator
    No,                      !- Snow Indicator
    No,                      !- Daylight Saving Time Indicator
    ASHRAEClearSky,          !- Solar Model Indicator
    ,                        !- Beam Solar Day Schedule Name
    ,                        !- Diffuse Solar Day Schedule Name
    ,                        !- ASHRAE Clear Sky Optical Depth for Beam Irradiance (taub) {dimensionless}
    ,                        !- ASHRAE Clear Sky Optical Depth for Diffuse Irradiance (taud) {dimensionless}
    1.00;                    !- Sky Clearness


!-   ===========  ALL OBJECTS IN CLASS: RUNPERIOD ===========

RunPeriod,
    ,                        !- Name
    1,                       !- Begin Month
    1,                       !- Begin Day of Month
    ,                        !- Begin Year
    12,                      !- End Month
    31,                      !- End Day of Month
    ,                        !- End Year
    Sunday,                  !- Day of Week for Start Day
    No,                      !- Use Weather File Holidays and Special Days
    No,                      !- Use Weather File Daylight Saving Period
    No,                      !- Apply Weekend Holiday Rule
    Yes,                     !- Use Weather File Rain Indicators
    Yes;                     !- Use Weather File Snow Indicators


!-   ===========  ALL OBJECTS IN CLASS: RUNPERIODCONTROL:SPECIALDAYS ===========

RunPeriodControl:SpecialDays,
    New Years Day,           !- Name
    January 1,               !- Start Date
    1,                       !- Duration {days}
    Holiday;                 !- Special Day Type

RunPeriodControl:SpecialDays,
    Veterans Day,            !- Name
    November 11,             !- Start Date
    1,                       !- Duration {days}
    Holiday;                 !- Special Day Type

RunPeriodControl:SpecialDays,
    Christmas,               !- Name
    December 25,             !- Start Date
    1,                       !- Duration {days}
    Holiday;                 !- Special Day Type

RunPeriodControl:SpecialDays,
    Independence Day,        !- Name
    July 4,                  !- Start Date
    1,                       !- Duration {days}
    Holiday;                 !- Special Day Type

RunPeriodControl:SpecialDays,
    MLK Day,                 !- Name
    3rd Monday in January,   !- Start Date
    1,                       !- Duration {days}
    Holiday;                 !- Special Day Type

RunPeriodControl:SpecialDays,
    Presidents Day,          !- Name
    3rd Monday in February,  !- Start Date
    1,                       !- Duration {days}
    Holiday;                 !- Special Day Type

RunPeriodControl:SpecialDays,
    Memorial Day,            !- Name
    Last Monday in May,      !- Start Date
    1,                       !- Duration {days}
    Holiday;                 !- Special Day Type

RunPeriodControl:SpecialDays,
    Labor Day,               !- Name
    1st Monday in September, !- Start Date
    1,                       !- Duration {days}
    Holiday;                 !- Special Day Type

RunPeriodControl:SpecialDays,
    Columbus Day,            !- Name
    2nd Monday in October,   !- Start Date
    1,                       !- Duration {days}
    Holiday;                 !- Special Day Type

RunPeriodControl:SpecialDays,
    Thanksgiving,            !- Name
    4th Thursday in November,!- Start Date
    1,                       !- Duration {days}
    Holiday;                 !- Special Day Type


!-   ===========  ALL OBJECTS IN CLASS: RUNPERIODCONTROL:DAYLIGHTSAVINGTIME ===========

! ***HOLIDAYS & DAYLIGHT SAVINGS***
RunPeriodControl:DaylightSavingTime,
    2nd Sunday in March,     !- Start Date
    1st Sunday in November;  !- End Date


!-   ===========  ALL OBJECTS IN CLASS: SITE:GROUNDTEMPERATURE:BUILDINGSURFACE ===========

Site:GroundTemperature:BuildingSurface,
    10.34,                   !- January Ground Temperature {C}
    10.19,                   !- February Ground Temperature {C}
    11.31,                   !- March Ground Temperature {C}
    13.07,                   !- April Ground Temperature {C}
    16.39,                   !- May Ground Temperature {C}
    19.30,                   !- June Ground Temperature {C}
    22.10,                   !- July Ground Temperature {C}
    24.20,                   !- August Ground Temperature {C}
    21.69,                   !- September Ground Temperature {C}
    17.32,                   !- October Ground Temperature {C}
    14.23,                   !- November Ground Temperature {C}
    11.34;                   !- December Ground Temperature {C}


!-   ===========  ALL OBJECTS IN CLASS: SITE:WATERMAINSTEMPERATURE ===========

Site:WaterMainsTemperature,
    CORRELATION,             !- Calculation Method
    ,                        !- Temperature Schedule Name
    9.69,                    !- Annual Average Outdoor Air Temperature {C}
    28.10;                   !- Maximum Difference In Monthly Average Outdoor Air Temperatures {deltaC}


!-   ===========  ALL OBJECTS IN CLASS: SCHEDULETYPELIMITS ===========

! ***SCHEDULE TYPES***
ScheduleTypeLimits,
    Any Number;              !- Name

ScheduleTypeLimits,
    Fraction,                !- Name
    0.0,                     !- Lower Limit Value
    1.0,                     !- Upper Limit Value
    CONTINUOUS;              !- Numeric Type

ScheduleTypeLimits,
    Temperature,             !- Name
    -60,                     !- Lower Limit Value
    200,                     !- Upper Limit Value
    CONTINUOUS;              !- Numeric Type

ScheduleTypeLimits,
    On/Off,                  !- Name
    0,                       !- Lower Limit Value
    1,                       !- Upper Limit Value
    DISCRETE;                !- Numeric Type

ScheduleTypeLimits,
    Control Type,            !- Name
    0,                       !- Lower Limit Value
    4,                       !- Upper Limit Value
    DISCRETE;                !- Numeric Type

ScheduleTypeLimits,
    Humidity,                !- Name
    10,                      !- Lower Limit Value
    90,                      !- Upper Limit Value
    CONTINUOUS;              !- Numeric Type

ScheduleTypeLimits,
    Number;                  !- Name


!-   ===========  ALL OBJECTS IN CLASS: SCHEDULE:COMPACT ===========

! ***ALWAYS ON SCHEDULE***
Schedule:Compact,
    ALWAYS_ON,               !- Name
    On/Off,                  !- Schedule Type Limits Name
    Through: 12/31,          !- Field 1
    For: AllDays,            !- Field 2
    Until: 24:00,            !- Field 3
    1;                       !- Field 4

! ***INTERNAL GAINS SCHEDULES***
Schedule:Compact,
    ACTIVITY_SCH,            !- Name
    Any Number,              !- Schedule Type Limits Name
    Through: 12/31,          !- Field 1
    For: AllDays,            !- Field 2
    Until: 24:00,            !- Field 3
    120.;                    !- Field 4

Schedule:Compact,
    AIR_VELO_SCH,            !- Name
    Any Number,              !- Schedule Type Limits Name
    Through: 12/31,          !- Field 1
    For: AllDays,            !- Field 2
    Until: 24:00,            !- Field 3
    0.2;                     !- Field 4

Schedule:Compact,
    BLDG_EQUIP_SCH,          !- Name
    Fraction,                !- Schedule Type Limits Name
    Through: 12/31,          !- Field 1
    For: Weekdays,           !- Field 2
    Until: 07:00,            !- Field 3
    0.1,                     !- Field 4
    Until: 08:00,            !- Field 5
    0.5,                     !- Field 6
    Until: 09:00,            !- Field 7
    0.8,                     !- Field 8
    Until: 12:00,            !- Field 9
    0.9,                     !- Field 10
    Until: 13:00,            !- Field 11
    0.8,                     !- Field 12
    Until: 17:00,            !- Field 13
    0.9,                     !- Field 14
    Until: 18:00,            !- Field 15
    0.4,                     !- Field 16
    Until: 24:00,            !- Field 17
    0.1,                     !- Field 18
    For: Saturday,           !- Field 19
    Until: 08:00,            !- Field 20
    0.1,                     !- Field 21
    Until: 09:00,            !- Field 22
    0.2,                     !- Field 23
    Until: 12:00,            !- Field 24
    0.4,                     !- Field 25
    Until: 24:00,            !- Field 26
    0.1,                     !- Field 27
    For: SummerDesignDay,    !- Field 28
    Until: 24:00,            !- Field 29
    1.0,                     !- Field 30
    For: WinterDesignDay,    !- Field 31
    Until: 24:00,            !- Field 32
    0.0,                     !- Field 33
    For: Sunday Holidays AllOtherDays,  !- Field 34
    Until: 24:00,            !- Field 35
    0.1;                     !- Field 36

Schedule:Compact,
    BLDG_LIGHT_SCH,          !- Name
    Fraction,                !- Schedule Type Limits Name
    Through: 12/31,          !- Field 1
    For: Weekdays,           !- Field 2
    Until: 07:00,            !- Field 3
    0.1,                     !- Field 4
    Until: 08:00,            !- Field 5
    0.4,                     !- Field 6
    Until: 09:00,            !- Field 7
    0.7,                     !- Field 8
    Until: 12:00,            !- Field 9
    0.9,                     !- Field 10
    Until: 13:00,            !- Field 11
    0.8,                     !- Field 12
    Until: 17:00,            !- Field 13
    0.9,                     !- Field 14
    Until: 18:00,            !- Field 15
    0.3,                     !- Field 16
    Until: 24:00,            !- Field 17
    0.1,                     !- Field 18
    For: Saturday,           !- Field 19
    Until: 08:00,            !- Field 20
    0.1,                     !- Field 21
    Until: 09:00,            !- Field 22
    0.1,                     !- Field 23
    Until: 12:00,            !- Field 24
    0.24,                    !- Field 25
    Until: 24:00,            !- Field 26
    0.1,                     !- Field 27
    For: SummerDesignDay,    !- Field 28
    Until: 24:00,            !- Field 29
    1.0,                     !- Field 30
    For: WinterDesignDay,    !- Field 31
    Until: 24:00,            !- Field 32
    0.0,                     !- Field 33
    For: Sunday Holidays AllOtherDays,  !- Field 34
    Until: 24:00,            !- Field 35
    0.1;                     !- Field 36

Schedule:Compact,
    BLDG_OCC_SCH,            !- Name
    Fraction,                !- Schedule Type Limits Name
    Through: 12/31,          !- Field 1
    For: Weekdays,           !- Field 2
    Until: 07:00,            !- Field 3
    0.0,                     !- Field 4
    Until: 08:00,            !- Field 5
    0.15,                    !- Field 6
    Until: 09:00,            !- Field 7
    0.7,                     !- Field 8
    Until: 12:00,            !- Field 9
    0.9,                     !- Field 10
    Until: 13:00,            !- Field 11
    0.5,                     !- Field 12
    Until: 16:00,            !- Field 13
    0.85,                    !- Field 14
    Until: 17:00,            !- Field 15
    0.2,                     !- Field 16
    Until: 24:00,            !- Field 17
    0.0,                     !- Field 18
    For: SummerDesignDay,    !- Field 19
    Until: 24:00,            !- Field 20
    1.0,                     !- Field 21
    For: Saturday,           !- Field 22
    Until: 08:00,            !- Field 23
    0.0,                     !- Field 24
    Until: 12:00,            !- Field 25
    0.2,                     !- Field 26
    Until: 16:00,            !- Field 27
    0.1,                     !- Field 28
    Until: 24:00,            !- Field 29
    0.0,                     !- Field 30
    For: WinterDesignDay,    !- Field 31
    Until: 24:00,            !- Field 32
    0.0,                     !- Field 33
    For: Sunday Holidays AllOtherDays,  !- Field 34
    Until: 24:00,            !- Field 35
    0.0;                     !- Field 36

Schedule:Compact,
    CLOTHING_SCH,            !- Name
    Any Number,              !- Schedule Type Limits Name
    Through: 04/30,          !- Field 1
    For: AllDays,            !- Field 2
    Until: 24:00,            !- Field 3
    1.0,                     !- Field 4
    Through: 09/30,          !- Field 5
    For: AllDays,            !- Field 6
    Until: 24:00,            !- Field 7
    0.5,                     !- Field 8
    Through: 12/31,          !- Field 9
    For: AllDays,            !- Field 10
    Until: 24:00,            !- Field 11
    1.0;                     !- Field 12

Schedule:Compact,
    WORK_EFF_SCH,            !- Name
    Fraction,                !- Schedule Type Limits Name
    Through: 12/31,          !- Field 1
    For: AllDays,            !- Field 2
    Until: 24:00,            !- Field 3
    0.0;                     !- Field 4

! ***SCHEDULES***
Schedule:Compact,
    CLGSETP_FineStorage_SCH, !- Name
    Temperature,             !- Schedule Type Limits Name
    Through: 12/31,          !- Field 1
    For: AllDays,            !- Field 2
    Until: 24:00,            !- Field 3
    26.7;                    !- Field 4

Schedule:Compact,
    CLGSETP_SCH,             !- Name
    Temperature,             !- Schedule Type Limits Name
    Through: 12/31,          !- Field 1
    For: Weekdays SummerDesignDay,  !- Field 2
    Until: 07:00,            !- Field 3
    30.0,                    !- Field 4
    Until: 17:00,            !- Field 5
    24.0,                    !- Field 6
    Until: 24:00,            !- Field 7
    30.0,                    !- Field 8
    For: Saturday,           !- Field 9
    Until: 08:00,            !- Field 10
    30.0,                    !- Field 11
    Until: 16:00,            !- Field 12
    24.0,                    !- Field 13
    Until: 24:00,            !- Field 14
    30.0,                    !- Field 15
    For: AllOtherDays,       !- Field 16
    Until: 24:00,            !- Field 17
    30.0;                    !- Field 18

Schedule:Compact,
    Dual Zone Control Type Sched,  !- Name
    Control Type,            !- Schedule Type Limits Name
    Through: 12/31,          !- Field 1
    For: AllDays,            !- Field 2
    Until: 24:00,            !- Field 3
    4;                       !- Field 4

Schedule:Compact,
    HTGSETP_BulkStorage_SCH, !- Name
    Temperature,             !- Schedule Type Limits Name
    Through: 12/31,          !- Field 1
    For: AllDays,            !- Field 2
    Until: 24:00,            !- Field 3
    7.2;                     !- Field 4

Schedule:Compact,
    HTGSETP_FineStorage_SCH, !- Name
    Temperature,             !- Schedule Type Limits Name
    Through: 12/31,          !- Field 1
    For: AllDays,            !- Field 2
    Until: 24:00,            !- Field 3
    15.6;                    !- Field 4

Schedule:Compact,
    HTGSETP_SCH,             !- Name
    Temperature,             !- Schedule Type Limits Name
    Through: 12/31,          !- Field 1
    For: Weekdays,           !- Field 2
    Until: 06:00,            !- Field 3
    15.5,                    !- Field 4
    Until: 17:00,            !- Field 5
    21.0,                    !- Field 6
    Until: 24:00,            !- Field 7
    15.5,                    !- Field 8
    For WinterDesignDay,     !- Field 9
    Until: 24:00,            !- Field 10
    21.0,                    !- Field 11
    For: Saturday,           !- Field 12
    Until: 07:00,            !- Field 13
    15.5,                    !- Field 14
    Until: 16:00,            !- Field 15
    21.0,                    !- Field 16
    Until: 24:00,            !- Field 17
    15.5,                    !- Field 18
    For: AllOtherDays,       !- Field 19
    Until: 24:00,            !- Field 20
    15.5;                    !- Field 21

Schedule:Compact,
    HVACOperationSchd,       !- Name
    On/Off,                  !- Schedule Type Limits Name
    Through: 12/31,          !- Field 1
    For: Weekdays SummerDesignDay,  !- Field 2
    Until: 06:00,            !- Field 3
    0.0,                     !- Field 4
    Until: 17:00,            !- Field 5
    1.0,                     !- Field 6
    Until: 24:00,            !- Field 7
    0.0,                     !- Field 8
    For: Saturday WinterDesignDay,  !- Field 9
    Until: 07:00,            !- Field 10
    0.0,                     !- Field 11
    Until: 16:00,            !- Field 12
    1.0,                     !- Field 13
    Until: 24:00,            !- Field 14
    0.0,                     !- Field 15
    For: AllOtherDays,       !- Field 16
    Until: 24:00,            !- Field 17
    0.0;                     !- Field 18

Schedule:Compact,
    MinOA_Sched,             !- Name
    Fraction,                !- Schedule Type Limits Name
    Through: 12/31,          !- Field 1
    For: Weekdays SummerDesignDay,  !- Field 2
    Until: 06:00,            !- Field 3
    0.0,                     !- Field 4
    Until: 17:00,            !- Field 5
    1.0,                     !- Field 6
    Until: 24:00,            !- Field 7
    0.0,                     !- Field 8
    For: Saturday WinterDesignDay,  !- Field 9
    Until: 07:00,            !- Field 10
    0.0,                     !- Field 11
    Until: 16:00,            !- Field 12
    1.0,                     !- Field 13
    Until: 24:00,            !- Field 14
    0.0,                     !- Field 15
    For: AllOtherDays,       !- Field 16
    Until: 24:00,            !- Field 17
    0.0;                     !- Field 18


!-   ===========  ALL OBJECTS IN CLASS: MATERIAL ===========

Material,
    Metal Building Semi-Cond Wall Insulation,  !- Name
    MediumRough,             !- Roughness
    0.0495494599433393,      !- Thickness {m}
    0.049,                   !- Conductivity {W/m-K}
    265.0000,                !- Density {kg/m3}
    836.8000,                !- Specific Heat {J/kg-K}
    0.9000,                  !- Thermal Absorptance
    0.7000,                  !- Solar Absorptance
    0.7000;                  !- Visible Absorptance

Material,
    Metal Semi-Cond Roof Insulation,  !- Name
    MediumRough,             !- Roughness
    0.0822341258092582,      !- Thickness {m}
    0.049,                   !- Conductivity {W/m-K}
    265.0000,                !- Density {kg/m3}
    836.8000,                !- Specific Heat {J/kg-K}
    0.9000,                  !- Thermal Absorptance
    0.7000,                  !- Solar Absorptance
    0.7000;                  !- Visible Absorptance

Material,
    Std Wood 6inch,          !- Name
    MediumSmooth,            !- Roughness
    0.15,                    !- Thickness {m}
    0.12,                    !- Conductivity {W/m-K}
    540.0000,                !- Density {kg/m3}
    1210,                    !- Specific Heat {J/kg-K}
    0.9000000,               !- Thermal Absorptance
    0.7000000,               !- Solar Absorptance
    0.7000000;               !- Visible Absorptance

Material,
    Wood Siding,             !- Name
    MediumSmooth,            !- Roughness
    0.0100,                  !- Thickness {m}
    0.1100,                  !- Conductivity {W/m-K}
    544.6200,                !- Density {kg/m3}
    1210.0000,               !- Specific Heat {J/kg-K}
    0.9000,                  !- Thermal Absorptance
    0.7800,                  !- Solar Absorptance
    0.7800;                  !- Visible Absorptance

Material,
    1/2IN Gypsum,            !- Name
    Smooth,                  !- Roughness
    0.0127,                  !- Thickness {m}
    0.1600,                  !- Conductivity {W/m-K}
    784.9000,                !- Density {kg/m3}
    830.0000,                !- Specific Heat {J/kg-K}
    0.9000,                  !- Thermal Absorptance
    0.9200,                  !- Solar Absorptance
    0.9200;                  !- Visible Absorptance

Material,
    1IN Stucco,              !- Name
    Smooth,                  !- Roughness