Version,
  9.0;                                    !- Version Identifier

Timestep,
  6;                                      !- Number of Timesteps per Hour

LifeCycleCost:Parameters,
  Life Cycle Cost Parameters,             !- Name
  EndOfYear,                              !- Discounting Convention
  ConstantDollar,                         !- Inflation Approach
  0.03,                                   !- Real Discount Rate
  ,                                       !- Nominal Discount Rate
  ,                                       !- Inflation
  ,                                       !- Base Date Month
  2011,                                   !- Base Date Year
  ,                                       !- Service Date Month
  2011,                                   !- Service Date Year
  25,                                     !- Length of Study Period in Years
  ,                                       !- Tax rate
  None;                                   !- Depreciation Method

LifeCycleCost:UsePriceEscalation,
  U.S. Avg  Commercial-Electricity,       !- LCC Price Escalation Name
  Electricity,                            !- Resource
  2011,                                   !- Escalation Start Year
  January,                                !- Escalation Start Month
  0.9838,                                 !- Year Escalation 1
  0.9730,                                 !- Year Escalation 2
  0.9632,                                 !- Year Escalation 3
  0.9611,                                 !- Year Escalation 4
  0.9571,                                 !- Year Escalation 5
  0.9553,                                 !- Year Escalation 6
  0.9539,                                 !- Year Escalation 7
  0.9521,                                 !- Year Escalation 8
  0.9546,                                 !- Year Escalation 9
  0.9550,                                 !- Year Escalation 10
  0.9553,                                 !- Year Escalation 11
  0.9564,                                 !- Year Escalation 12
  0.9575,                                 !- Year Escalation 13
  0.9596,                                 !- Year Escalation 14
  0.9618,                                 !- Year Escalation 15
  0.9614,                                 !- Year Escalation 16
  0.9618,                                 !- Year Escalation 17
  0.9618,                                 !- Year Escalation 18
  0.9593,                                 !- Year Escalation 19
  0.9589,                                 !- Year Escalation 20
  0.9607,                                 !- Year Escalation 21
  0.9625,                                 !- Year Escalation 22
  0.9650,                                 !- Year Escalation 23
  0.9708,                                 !- Year Escalation 24
  0.9751,                                 !- Year Escalation 25
  0.9762,                                 !- Year Escalation 26
  0.9766,                                 !- Year Escalation 27
  0.9766,                                 !- Year Escalation 28
  0.9769,                                 !- Year Escalation 29
  0.9773;                                 !- Year Escalation 30

LifeCycleCost:UsePriceEscalation,
  U.S. Avg  Commercial-Distillate Oil,    !- LCC Price Escalation Name
  FuelOil#1,                              !- Resource
  2011,                                   !- Escalation Start Year
  January,                                !- Escalation Start Month
  0.9714,                                 !- Year Escalation 1
  0.9730,                                 !- Year Escalation 2
  0.9942,                                 !- Year Escalation 3
  1.0164,                                 !- Year Escalation 4
  1.0541,                                 !- Year Escalation 5
  1.0928,                                 !- Year Escalation 6
  1.1267,                                 !- Year Escalation 7
  1.1580,                                 !- Year Escalation 8
  1.1792,                                 !- Year Escalation 9
  1.1967,                                 !- Year Escalation 10
  1.2200,                                 !- Year Escalation 11
  1.2333,                                 !- Year Escalation 12
  1.2566,                                 !- Year Escalation 13
  1.2709,                                 !- Year Escalation 14
  1.2826,                                 !- Year Escalation 15
  1.2985,                                 !- Year Escalation 16
  1.3102,                                 !- Year Escalation 17
  1.3250,                                 !- Year Escalation 18
  1.3261,                                 !- Year Escalation 19
  1.3282,                                 !- Year Escalation 20
  1.3324,                                 !- Year Escalation 21
  1.3356,                                 !- Year Escalation 22
  1.3431,                                 !- Year Escalation 23
  1.3510,                                 !- Year Escalation 24
  1.3568,                                 !- Year Escalation 25
  1.3606,                                 !- Year Escalation 26
  1.3637,                                 !- Year Escalation 27
  1.3674,                                 !- Year Escalation 28
  1.3706,                                 !- Year Escalation 29
  1.3743;                                 !- Year Escalation 30

LifeCycleCost:UsePriceEscalation,
  U.S. Avg  Commercial-Residual Oil,      !- LCC Price Escalation Name
  FuelOil#2,                              !- Resource
  2011,                                   !- Escalation Start Year
  January,                                !- Escalation Start Month
  0.8469,                                 !- Year Escalation 1
  0.8257,                                 !- Year Escalation 2
  0.8681,                                 !- Year Escalation 3
  0.8988,                                 !- Year Escalation 4
  0.9289,                                 !- Year Escalation 5
  0.9604,                                 !- Year Escalation 6
  0.9897,                                 !- Year Escalation 7
  1.0075,                                 !- Year Escalation 8
  1.0314,                                 !- Year Escalation 9
  1.0554,                                 !- Year Escalation 10
  1.0861,                                 !- Year Escalation 11
  1.1278,                                 !- Year Escalation 12
  1.1497,                                 !- Year Escalation 13
  1.1620,                                 !- Year Escalation 14
  1.1743,                                 !- Year Escalation 15
  1.1852,                                 !- Year Escalation 16
  1.1948,                                 !- Year Escalation 17
  1.2037,                                 !- Year Escalation 18
  1.2071,                                 !- Year Escalation 19
  1.2119,                                 !- Year Escalation 20
  1.2139,                                 !- Year Escalation 21
  1.2194,                                 !- Year Escalation 22
  1.2276,                                 !- Year Escalation 23
  1.2365,                                 !- Year Escalation 24
  1.2420,                                 !- Year Escalation 25
  1.2461,                                 !- Year Escalation 26
  1.2509,                                 !- Year Escalation 27
  1.2550,                                 !- Year Escalation 28
  1.2591,                                 !- Year Escalation 29
  1.2638;                                 !- Year Escalation 30

LifeCycleCost:UsePriceEscalation,
  U.S. Avg  Commercial-Natural gas,       !- LCC Price Escalation Name
  NaturalGas,                             !- Resource
  2011,                                   !- Escalation Start Year
  January,                                !- Escalation Start Month
  0.9823,                                 !- Year Escalation 1
  0.9557,                                 !- Year Escalation 2
  0.9279,                                 !- Year Escalation 3
  0.9257,                                 !- Year Escalation 4
  0.9346,                                 !- Year Escalation 5
  0.9412,                                 !- Year Escalation 6
  0.9512,                                 !- Year Escalation 7
  0.9645,                                 !- Year Escalation 8
  0.9856,                                 !- Year Escalation 9
  1.0067,                                 !- Year Escalation 10
  1.0222,                                 !- Year Escalation 11
  1.0410,                                 !- Year Escalation 12
  1.0610,                                 !- Year Escalation 13
  1.0787,                                 !- Year Escalation 14
  1.0942,                                 !- Year Escalation 15
  1.1098,                                 !- Year Escalation 16
  1.1220,                                 !- Year Escalation 17
  1.1308,                                 !- Year Escalation 18
  1.1386,                                 !- Year Escalation 19
  1.1486,                                 !- Year Escalation 20
  1.1619,                                 !- Year Escalation 21
  1.1763,                                 !- Year Escalation 22
  1.1918,                                 !- Year Escalation 23
  1.2118,                                 !- Year Escalation 24
  1.2284,                                 !- Year Escalation 25
  1.2439,                                 !- Year Escalation 26
  1.2605,                                 !- Year Escalation 27
  1.2772,                                 !- Year Escalation 28
  1.2938,                                 !- Year Escalation 29
  1.3115;                                 !- Year Escalation 30

LifeCycleCost:UsePriceEscalation,
  U.S. Avg  Commercial-Coal,              !- LCC Price Escalation Name
  Coal,                                   !- Resource
  2011,                                   !- Escalation Start Year
  January,                                !- Escalation Start Month
  0.9970,                                 !- Year Escalation 1
  1.0089,                                 !- Year Escalation 2
  1.0089,                                 !- Year Escalation 3
  0.9941,                                 !- Year Escalation 4
  0.9941,                                 !- Year Escalation 5
  1.0000,                                 !- Year Escalation 6
  1.0030,                                 !- Year Escalation 7
  1.0059,                                 !- Year Escalation 8
  1.0089,                                 !- Year Escalation 9
  1.0119,                                 !- Year Escalation 10
  1.0148,                                 !- Year Escalation 11
  1.0178,                                 !- Year Escalation 12
  1.0208,                                 !- Year Escalation 13
  1.0267,                                 !- Year Escalation 14
  1.0297,                                 !- Year Escalation 15
  1.0356,                                 !- Year Escalation 16
  1.0415,                                 !- Year Escalation 17
  1.0534,                                 !- Year Escalation 18
  1.0564,                                 !- Year Escalation 19
  1.0593,                                 !- Year Escalation 20
  1.0653,                                 !- Year Escalation 21
  1.0712,                                 !- Year Escalation 22
  1.0742,                                 !- Year Escalation 23
  1.0801,                                 !- Year Escalation 24
  1.0831,                                 !- Year Escalation 25
  1.0831,                                 !- Year Escalation 26
  1.0861,                                 !- Year Escalation 27
  1.0890,                                 !- Year Escalation 28
  1.0920,                                 !- Year Escalation 29
  1.0950;                                 !- Year Escalation 30

Building,
  MediumOffice-CAN_BC_Victoria.Intl.AP.717990_CWEC2016.epw created: 2019-09-25 21:28:40 +0000, !- Name
  0,                                      !- North Axis {deg}
  City,                                   !- Terrain
  0.04,                                   !- Loads Convergence Tolerance Value
  0.2,                                    !- Temperature Convergence Tolerance Value {deltaC}
  FullInteriorAndExterior,                !- Solar Distribution
  25,                                     !- Maximum Number of Warmup Days
  6;                                      !- Minimum Number of Warmup Days

Zone,
  ALL_ST=- undefined -_FL=Building Story 1_SCH=A, !- Name
  0,                                      !- Direction of Relative North {deg}
  0,                                      !- X Origin {m}
  0,                                      !- Y Origin {m}
  0,                                      !- Z Origin {m}
  ,                                       !- Type
  ,                                       !- Multiplier
  ,                                       !- Ceiling Height {m}
  ,                                       !- Volume {m3}
  ,                                       !- Floor Area {m2}
  ,                                       !- Zone Inside Convection Algorithm
  ,                                       !- Zone Outside Convection Algorithm
  No;                                     !- Part of Total Floor Area

BuildingSurface:Detailed,
  FirstFloor_Plenum_Ceiling_1,            !- Name
  Ceiling,                                !- Surface Type
  BTAP-Int-Ceiling,                       !- Construction Name
  ALL_ST=- undefined -_FL=Building Story 1_SCH=A, !- Zone Name
  Surface,                                !- Outside Boundary Condition
  Perimeter_mid_ZN_1_Floor,               !- Outside Boundary Condition Object
  NoSun,                                  !- Sun Exposure
  NoWind,                                 !- Wind Exposure
  ,                                       !- View Factor to Ground
  ,                                       !- Number of Vertices
  49.911, 0, 3.9624,                      !- X,Y,Z Vertex 1 {m}
  45.3375, 4.5732, 3.9624,                !- X,Y,Z Vertex 2 {m}
  4.5732, 4.5732, 3.9624,                 !- X,Y,Z Vertex 3 {m}
  0, 0, 3.9624;                           !- X,Y,Z Vertex 4 {m}

BuildingSurface:Detailed,
  FirstFloor_Plenum_Ceiling_2,            !- Name
  Ceiling,                                !- Surface Type
  BTAP-Int-Ceiling,                       !- Construction Name
  ALL_ST=- undefined -_FL=Building Story 1_SCH=A, !- Zone Name
  Surface,                                !- Outside Boundary Condition
  Perimeter_mid_ZN_2_Floor,               !- Outside Boundary Condition Object
  NoSun,                                  !- Sun Exposure
  NoWind,                                 !- Wind Exposure
  ,                                       !- View Factor to Ground
  ,                                       !- Number of Vertices
  49.911, 0, 3.9624,                      !- X,Y,Z Vertex 1 {m}
  49.911, 33.2738, 3.9624,                !- X,Y,Z Vertex 2 {m}
  45.3375, 28.7006, 3.9624,               !- X,Y,Z Vertex 3 {m}
  45.3375, 4.5732, 3.9624;                !- X,Y,Z Vertex 4 {m}

BuildingSurface:Detailed,
  FirstFloor_Plenum_Ceiling_3,            !- Name
  Ceiling,                                !- Surface Type
  BTAP-Int-Ceiling,                       !- Construction Name
  ALL_ST=- undefined -_FL=Building Story 1_SCH=A, !- Zone Name
  Surface,                                !- Outside Boundary Condition
  Perimeter_mid_ZN_3_Floor,               !- Outside Boundary Condition Object
  NoSun,                                  !- Sun Exposure
  NoWind,                                 !- Wind Exposure
  ,                                       !- View Factor to Ground
  ,                                       !- Number of Vertices
  45.3375, 28.7006, 3.9624,               !- X,Y,Z Vertex 1 {m}
  49.911, 33.2738, 3.9624,                !- X,Y,Z Vertex 2 {m}
  0, 33.2738, 3.9624,                     !- X,Y,Z Vertex 3 {m}
  4.5732, 28.7006, 3.9624;                !- X,Y,Z Vertex 4 {m}

BuildingSurface:Detailed,
  FirstFloor_Plenum_Ceiling_4,            !- Name
  Ceiling,                                !- Surface Type
  BTAP-Int-Ceiling,                       !- Construction Name
  ALL_ST=- undefined -_FL=Building Story 1_SCH=A, !- Zone Name
  Surface,                                !- Outside Boundary Condition
  Perimeter_mid_ZN_4_Floor,               !- Outside Boundary Condition Object
  NoSun,                                  !- Sun Exposure
  NoWind,                                 !- Wind Exposure
  ,                                       !- View Factor to Ground
  ,                                       !- Number of Vertices
  0, 0, 3.9624,                           !- X,Y,Z Vertex 1 {m}
  4.5732, 4.5732, 3.9624,                 !- X,Y,Z Vertex 2 {m}
  4.5732, 28.7006, 3.9624,                !- X,Y,Z Vertex 3 {m}
  0, 33.2738, 3.9624;                     !- X,Y,Z Vertex 4 {m}

BuildingSurface:Detailed,
  FirstFloor_Plenum_Ceiling_5,            !- Name
  Ceiling,                                !- Surface Type
  BTAP-Int-Ceiling,                       !- Construction Name
  ALL_ST=- undefined -_FL=Building Story 1_SCH=A, !- Zone Name
  Surface,                                !- Outside Boundary Condition
  Core_mid_ZN_5_Floor,                    !- Outside Boundary Condition Object
  NoSun,                                  !- Sun Exposure
  NoWind,                                 !- Wind Exposure
  ,                                       !- View Factor to Ground
  ,                                       !- Number of Vertices
  45.3375, 4.5732, 3.9624,                !- X,Y,Z Vertex 1 {m}
  45.3375, 28.7006, 3.9624,               !- X,Y,Z Vertex 2 {m}
  4.5732, 28.7006, 3.9624,                !- X,Y,Z Vertex 3 {m}
  4.5732, 4.5732, 3.9624;                 !- X,Y,Z Vertex 4 {m}

BuildingSurface:Detailed,
  FirstFloor_Plenum_Floor_1,              !- Name
  Floor,                                  !- Surface Type
  BTAP-Int-Floor,                         !- Construction Name
  ALL_ST=- undefined -_FL=Building Story 1_SCH=A, !- Zone Name
  Surface,                                !- Outside Boundary Condition
  Perimeter_bot_ZN_1_Ceiling,             !- Outside Boundary Condition Object
  NoSun,                                  !- Sun Exposure
  NoWind,                                 !- Wind Exposure
  ,                                       !- View Factor to Ground
  ,                                       !- Number of Vertices
  45.3375, 4.5732, 2.7432,                !- X,Y,Z Vertex 1 {m}
  49.911, 0, 2.7432,                      !- X,Y,Z Vertex 2 {m}
  0, 0, 2.7432,                           !- X,Y,Z Vertex 3 {m}
  4.5732, 4.5732, 2.7432;                 !- X,Y,Z Vertex 4 {m}

BuildingSurface:Detailed,
  FirstFloor_Plenum_Floor_2,              !- Name
  Floor,                                  !- Surface Type
  BTAP-Int-Floor,                         !- Construction Name
  ALL_ST=- undefined -_FL=Building Story 1_SCH=A, !- Zone Name
  Surface,                                !- Outside Boundary Condition
  Perimeter_bot_ZN_2_Ceiling,             !- Outside Boundary Condition Object
  NoSun,                                  !- Sun Exposure
  NoWind,                                 !- Wind Exposure
  ,                                       !- View Factor to Ground
  ,                                       !- Number of Vertices
  49.911, 33.2738, 2.7432,                !- X,Y,Z Vertex 1 {m}
  49.911, 0, 2.7432,                      !- X,Y,Z Vertex 2 {m}
  45.3375, 4.5732, 2.7432,                !- X,Y,Z Vertex 3 {m}
  45.3375, 28.7006, 2.7432;               !- X,Y,Z Vertex 4 {m}

BuildingSurface:Detailed,
  FirstFloor_Plenum_Floor_3,              !- Name
  Floor,                                  !- Surface Type
  BTAP-Int-Floor,                         !- Construction Name
  ALL_ST=- undefined -_FL=Building Story 1_SCH=A, !- Zone Name
  Surface,                                !- Outside Boundary Condition
  Perimeter_bot_ZN_3_Ceililng,            !- Outside Boundary Condition Object
  NoSun,                                  !- Sun Exposure
  NoWind,                                 !- Wind Exposure
  ,                                       !- View Factor to Ground
  ,                                       !- Number of Vertices
  49.911, 33.2738, 2.7432,                !- X,Y,Z Vertex 1 {m}
  45.3375, 28.7006, 2.7432,               !- X,Y,Z Vertex 2 {m}
  4.5732, 28.7006, 2.7432,                !- X,Y,Z Vertex 3 {m}
  0, 33.2738, 2.7432;                     !- X,Y,Z Vertex 4 {m}

BuildingSurface:Detailed,
  FirstFloor_Plenum_Floor_4,              !- Name
  Floor,                                  !- Surface Type
  BTAP-Int-Floor,                         !- Construction Name
  ALL_ST=- undefined -_FL=Building Story 1_SCH=A, !- Zone Name
  Surface,                                !- Outside Boundary Condition
  Perimeter_bot_ZN_4_Ceiling,             !- Outside Boundary Condition Object
  NoSun,                                  !- Sun Exposure
  NoWind,                                 !- Wind Exposure
  ,                                       !- View Factor to Ground
  ,                                       !- Number of Vertices
  0, 33.2738, 2.7432,                     !- X,Y,Z Vertex 1 {m}
  4.5732, 28.7006, 2.7432,                !- X,Y,Z Vertex 2 {m}
  4.5732, 4.5732, 2.7432,                 !- X,Y,Z Vertex 3 {m}
  0, 0, 2.7432;                           !- X,Y,Z Vertex 4 {m}

BuildingSurface:Detailed,
  FirstFloor_Plenum_Floor_5,              !- Name
  Floor,                                  !- Surface Type
  BTAP-Int-Floor,                         !- Construction Name
  ALL_ST=- undefined -_FL=Building Story 1_SCH=A, !- Zone Name
  Surface,                                !- Outside Boundary Condition
  Core_bottom_ceiling,                    !- Outside Boundary Condition Object
  NoSun,                                  !- Sun Exposure
  NoWind,                                 !- Wind Exposure
  ,                                       !- View Factor to Ground
  ,                                       !- Number of Vertices
  45.3375, 28.7006, 2.7432,               !- X,Y,Z Vertex 1 {m}
  45.3375, 4.5732, 2.7432,                !- X,Y,Z Vertex 2 {m}
  4.5732, 4.5732, 2.7432,                 !- X,Y,Z Vertex 3 {m}
  4.5732, 28.7006, 2.7432;                !- X,Y,Z Vertex 4 {m}

BuildingSurface:Detailed,
  Perimeter_bot_Plenum_Wall_East,         !- Name
  Wall,                                   !- Surface Type
  BTAP-Ext-Wall-Mass:U-0.315,             !- Construction Name
  ALL_ST=- undefined -_FL=Building Story 1_SCH=A, !- Zone Name
  Outdoors,                               !- Outside Boundary Condition
  ,                                       !- Outside Boundary Condition Object
  SunExposed,                             !- Sun Exposure
  WindExposed,                            !- Wind Exposure
  ,                                       !- View Factor to Ground
  ,                                       !- Number of Vertices
  49.911, 0, 3.9624,                      !- X,Y,Z Vertex 1 {m}
  49.911, 0, 2.7432,                      !- X,Y,Z Vertex 2 {m}
  49.911, 33.2738, 2.7432,                !- X,Y,Z Vertex 3 {m}
  49.911, 33.2738, 3.9624;                !- X,Y,Z Vertex 4 {m}

BuildingSurface:Detailed,
  Perimeter_bot_Plenum_Wall_North,        !- Name
  Wall,                                   !- Surface Type
  BTAP-Ext-Wall-Mass:U-0.315,             !- Construction Name
  ALL_ST=- undefined -_FL=Building Story 1_SCH=A, !- Zone Name
  Outdoors,                               !- Outside Boundary Condition
  ,                                       !- Outside Boundary Condition Object
  SunExposed,                             !- Sun Exposure
  WindExposed,                            !- Wind Exposure
  ,                                       !- View Factor to Ground
  ,                                       !- Number of Vertices
  49.911, 33.2738, 3.9624,                !- X,Y,Z Vertex 1 {m}
  49.911, 33.2738, 2.7432,                !- X,Y,Z Vertex 2 {m}
  0, 33.2738, 2.7432,                     !- X,Y,Z Vertex 3 {m}
  0, 33.2738, 3.9624;                     !- X,Y,Z Vertex 4 {m}

BuildingSurface:Detailed,
  Perimeter_bot_Plenum_Wall_South,        !- Name
  Wall,                                   !- Surface Type
  BTAP-Ext-Wall-Mass:U-0.315,             !- Construction Name
  ALL_ST=- undefined -_FL=Building Story 1_SCH=A, !- Zone Name
  Outdoors,                               !- Outside Boundary Condition
  ,                                       !- Outside Boundary Condition Object
  SunExposed,                             !- Sun Exposure
  WindExposed,                            !- Wind Exposure
  ,                                       !- View Factor to Ground
  ,                                       !- Number of Vertices
  0, 0, 3.9624,                           !- X,Y,Z Vertex 1 {m}
  0, 0, 2.7432,                           !- X,Y,Z Vertex 2 {m}
  49.911, 0, 2.7432,                      !- X,Y,Z Vertex 3 {m}
  49.911, 0, 3.9624;                      !- X,Y,Z Vertex 4 {m}

BuildingSurface:Detailed,
  Perimeter_bot_Plenum_Wall_West,         !- Name
  Wall,                                   !- Surface Type
  BTAP-Ext-Wall-Mass:U-0.315,             !- Construction Name
  ALL_ST=- undefined -_FL=Building Story 1_SCH=A, !- Zone Name
  Outdoors,                               !- Outside Boundary Condition
  ,                                       !- Outside Boundary Condition Object
  SunExposed,                             !- Sun Exposure
  WindExposed,                            !- Wind Exposure
  ,                                       !- View Factor to Ground
  ,                                       !- Number of Vertices
  0, 33.2738, 3.9624,                     !- X,Y,Z Vertex 1 {m}
  0, 33.2738, 2.7432,                     !- X,Y,Z Vertex 2 {m}
  0, 0, 2.7432,                           !- X,Y,Z Vertex 3 {m}
  0, 0, 3.9624;                           !- X,Y,Z Vertex 4 {m}

ZoneInfiltration:DesignFlowRate,
  FirstFloor_Plenum Infiltration,         !- Name
  ALL_ST=- undefined -_FL=Building Story 1_SCH=A, !- Zone or ZoneList Name
  Always On Discrete,                     !- Schedule Name
  Flow/ExteriorArea,                      !- Design Flow Rate Calculation Method
  ,                                       !- Design Flow Rate {m3/s}
  ,                                       !- Flow per Zone Floor Area {m3/s-m2}
  0.00025,                                !- Flow per Exterior Surface Area {m3/s-m2}
  ,                                       !- Air Changes per Hour {1/hr}
  0,                                      !- Constant Term Coefficient
  0,                                      !- Temperature Term Coefficient
  0.224,                                  !- Velocity Term Coefficient
  0;                                      !- Velocity Squared Term Coefficient

Zone,
  ALL_ST=- undefined -_FL=Building Story 2_SCH=A, !- Name
  0,                                      !- Direction of Relative North {deg}
  0,                                      !- X Origin {m}
  0,                                      !- Y Origin {m}
  0,                                      !- Z Origin {m}
  ,                                       !- Type
  ,                                       !- Multiplier
  ,                                       !- Ceiling Height {m}
  ,                                       !- Volume {m3}
  ,                                       !- Floor Area {m2}
  ,                                       !- Zone Inside Convection Algorithm
  ,                                       !- Zone Outside Convection Algorithm
  No;                                     !- Part of Total Floor Area

BuildingSurface:Detailed,
  MidFloor_Plenum_Ceiling_1,              !- Name
  Ceiling,                                !- Surface Type
  BTAP-Int-Ceiling,                       !- Construction Name
  ALL_ST=- undefined -_FL=Building Story 2_SCH=A, !- Zone Name
  Surface,                                !- Outside Boundary Condition
  Perimeter_top_ZN_1_Floor,               !- Outside Boundary Condition Object
  NoSun,                                  !- Sun Exposure
  NoWind,                                 !- Wind Exposure
  ,                                       !- View Factor to Ground
  ,                                       !- Number of Vertices
  49.911, 0, 7.9248,                      !- X,Y,Z Vertex 1 {m}
  45.3375, 4.5732, 7.9248,                !- X,Y,Z Vertex 2 {m}
  4.5732, 4.5732, 7.9248,                 !- X,Y,Z Vertex 3 {m}
  0, 0, 7.9248;                           !- X,Y,Z Vertex 4 {m}

BuildingSurface:Detailed,
  MidFloor_Plenum_Ceiling_2,              !- Name
  Ceiling,                                !- Surface Type
  BTAP-Int-Ceiling,                       !- Construction Name
  ALL_ST=- undefined -_FL=Building Story 2_SCH=A, !- Zone Name
  Surface,                                !- Outside Boundary Condition
  Perimeter_top_ZN_2_Floor,               !- Outside Boundary Condition Object
  NoSun,                                  !- Sun Exposure
  NoWind,                                 !- Wind Exposure
  ,                                       !- View Factor to Ground
  ,                                       !- Number of Vertices
  49.911, 0, 7.9248,                      !- X,Y,Z Vertex 1 {m}
  49.911, 33.2738, 7.9248,                !- X,Y,Z Vertex 2 {m}
  45.3375, 28.7006, 7.9248,               !- X,Y,Z Vertex 3 {m}
  45.3375, 4.5732, 7.9248;                !- X,Y,Z Vertex 4 {m}

BuildingSurface:Detailed,
  MidFloor_Plenum_Ceiling_3,              !- Name