!-Generator IDFEditor 1.50
!-Option OriginalOrderTop UseSpecialFormat

!-NOTE: All comments with '!-' are ignored by the IDFEditor and are generated automatically.
!-      Use '!' comments if they need to be retained when using the IDFEditor.

SizingPeriod:WeatherFileDays,
    design day,              !- Name
    1,                       !- Begin Month
    1,                       !- Begin Day of Month
    12,                      !- End Month
    31,                      !- End Day of Month
    Monday,                  !- Day of Week for Start Day
    Yes,                     !- Use Weather File Daylight Saving Period
    Yes;                     !- Use Weather File Rain and Snow Indicators
! 
! HVACTemplate:Thermostat,
!     thermostat,              !- Name
!     Medium Office HtgSetp,   !- Heating Setpoint Schedule Name
!     ,                        !- Constant Heating Setpoint {C}
!     Medium Office ClgSetp,   !- Cooling Setpoint Schedule Name
!     ;                        !- Constant Cooling Setpoint {C}
! 
! HVACTemplate:Zone:FanCoil,
!     Thermal Zone 1,          !- Zone Name
!     thermostat,              !- Template Thermostat Name
!     autosize,                !- Supply Air Maximum Flow Rate {m3/s}
!     ,                        !- Zone Heating Sizing Factor
!     ,                        !- Zone Cooling Sizing Factor
!     Flow/Person,             !- Outdoor Air Method
!     0.00944,                 !- Outdoor Air Flow Rate per Person {m3/s}
!     ,                        !- Outdoor Air Flow Rate per Zone Floor Area {m3/s-m2}
!     ,                        !- Outdoor Air Flow Rate per Zone {m3/s}
!     ,                        !- System Availability Schedule Name
!     0.7,                     !- Supply Fan Total Efficiency
!     75,                      !- Supply Fan Delta Pressure {Pa}
!     0.9,                     !- Supply Fan Motor Efficiency
!     1,                       !- Supply Fan Motor in Air Stream Fraction
!     ChilledWater,            !- Cooling Coil Type
!     ,                        !- Cooling Coil Availability Schedule Name
!     14,                      !- Cooling Coil Design Setpoint {C}
!     HotWater,                !- Heating Coil Type
!     ,                        !- Heating Coil Availability Schedule Name
!     50,                      !- Heating Coil Design Setpoint {C}
!     ,                        !- Dedicated Outdoor Air System Name
!     SupplyAirTemperature,    !- Zone Cooling Design Supply Air Temperature Input Method
!     11.11,                   !- Zone Cooling Design Supply Air Temperature Difference {deltaC}
!     SupplyAirTemperature,    !- Zone Heating Design Supply Air Temperature Input Method
!     30,                      !- Zone Heating Design Supply Air Temperature Difference {deltaC}
!     ,                        !- Design Specification Outdoor Air Object Name
!     ,                        !- Design Specification Zone Air Distribution Object Name
!     ,                        !- Capacity Control Method
!     0.33,                    !- Low Speed Supply Air Flow Ratio
!     0.66,                    !- Medium Speed Supply Air Flow Ratio
!     ,                        !- Outdoor Air Schedule Name
!     None,                    !- Baseboard Heating Type
!     ,                        !- Baseboard Heating Availability Schedule Name
!     autosize;                !- Baseboard Heating Capacity {W}
! 
! HVACTemplate:Zone:FanCoil,
!     Thermal Zone 2,          !- Zone Name
!     thermostat,              !- Template Thermostat Name
!     autosize,                !- Supply Air Maximum Flow Rate {m3/s}
!     ,                        !- Zone Heating Sizing Factor
!     ,                        !- Zone Cooling Sizing Factor
!     Flow/Person,             !- Outdoor Air Method
!     0.00944,                 !- Outdoor Air Flow Rate per Person {m3/s}
!     ,                        !- Outdoor Air Flow Rate per Zone Floor Area {m3/s-m2}
!     ,                        !- Outdoor Air Flow Rate per Zone {m3/s}
!     ,                        !- System Availability Schedule Name
!     0.7,                     !- Supply Fan Total Efficiency
!     75,                      !- Supply Fan Delta Pressure {Pa}
!     0.9,                     !- Supply Fan Motor Efficiency
!     1,                       !- Supply Fan Motor in Air Stream Fraction
!     ChilledWater,            !- Cooling Coil Type
!     ,                        !- Cooling Coil Availability Schedule Name
!     14,                      !- Cooling Coil Design Setpoint {C}
!     HotWater,                !- Heating Coil Type
!     ,                        !- Heating Coil Availability Schedule Name
!     50,                      !- Heating Coil Design Setpoint {C}
!     ,                        !- Dedicated Outdoor Air System Name
!     SupplyAirTemperature,    !- Zone Cooling Design Supply Air Temperature Input Method
!     11.11,                   !- Zone Cooling Design Supply Air Temperature Difference {deltaC}
!     SupplyAirTemperature,    !- Zone Heating Design Supply Air Temperature Input Method
!     30,                      !- Zone Heating Design Supply Air Temperature Difference {deltaC}
!     ,                        !- Design Specification Outdoor Air Object Name
!     ,                        !- Design Specification Zone Air Distribution Object Name
!     ,                        !- Capacity Control Method
!     0.33,                    !- Low Speed Supply Air Flow Ratio
!     0.66,                    !- Medium Speed Supply Air Flow Ratio
!     ,                        !- Outdoor Air Schedule Name
!     None,                    !- Baseboard Heating Type
!     ,                        !- Baseboard Heating Availability Schedule Name
!     autosize;                !- Baseboard Heating Capacity {W}
! 
! HVACTemplate:Zone:FanCoil,
!     Thermal Zone 3,          !- Zone Name
!     thermostat,              !- Template Thermostat Name
!     autosize,                !- Supply Air Maximum Flow Rate {m3/s}
!     ,                        !- Zone Heating Sizing Factor
!     ,                        !- Zone Cooling Sizing Factor
!     Flow/Person,             !- Outdoor Air Method
!     0.00944,                 !- Outdoor Air Flow Rate per Person {m3/s}
!     ,                        !- Outdoor Air Flow Rate per Zone Floor Area {m3/s-m2}
!     ,                        !- Outdoor Air Flow Rate per Zone {m3/s}
!     ,                        !- System Availability Schedule Name
!     0.7,                     !- Supply Fan Total Efficiency
!     75,                      !- Supply Fan Delta Pressure {Pa}
!     0.9,                     !- Supply Fan Motor Efficiency
!     1,                       !- Supply Fan Motor in Air Stream Fraction
!     ChilledWater,            !- Cooling Coil Type
!     ,                        !- Cooling Coil Availability Schedule Name
!     14,                      !- Cooling Coil Design Setpoint {C}
!     HotWater,                !- Heating Coil Type
!     ,                        !- Heating Coil Availability Schedule Name
!     50,                      !- Heating Coil Design Setpoint {C}
!     ,                        !- Dedicated Outdoor Air System Name
!     SupplyAirTemperature,    !- Zone Cooling Design Supply Air Temperature Input Method
!     11.11,                   !- Zone Cooling Design Supply Air Temperature Difference {deltaC}
!     SupplyAirTemperature,    !- Zone Heating Design Supply Air Temperature Input Method
!     30,                      !- Zone Heating Design Supply Air Temperature Difference {deltaC}
!     ,                        !- Design Specification Outdoor Air Object Name
!     ,                        !- Design Specification Zone Air Distribution Object Name
!     ,                        !- Capacity Control Method
!     0.33,                    !- Low Speed Supply Air Flow Ratio
!     0.66,                    !- Medium Speed Supply Air Flow Ratio
!     ,                        !- Outdoor Air Schedule Name
!     None,                    !- Baseboard Heating Type
!     ,                        !- Baseboard Heating Availability Schedule Name
!     autosize;                !- Baseboard Heating Capacity {W}
! 
! HVACTemplate:Zone:FanCoil,
!     Thermal Zone 4,          !- Zone Name
!     thermostat,              !- Template Thermostat Name
!     autosize,                !- Supply Air Maximum Flow Rate {m3/s}
!     ,                        !- Zone Heating Sizing Factor
!     ,                        !- Zone Cooling Sizing Factor
!     Flow/Person,             !- Outdoor Air Method
!     0.00944,                 !- Outdoor Air Flow Rate per Person {m3/s}
!     ,                        !- Outdoor Air Flow Rate per Zone Floor Area {m3/s-m2}
!     ,                        !- Outdoor Air Flow Rate per Zone {m3/s}
!     ,                        !- System Availability Schedule Name
!     0.7,                     !- Supply Fan Total Efficiency
!     75,                      !- Supply Fan Delta Pressure {Pa}
!     0.9,                     !- Supply Fan Motor Efficiency
!     1,                       !- Supply Fan Motor in Air Stream Fraction
!     ChilledWater,            !- Cooling Coil Type
!     ,                        !- Cooling Coil Availability Schedule Name
!     14,                      !- Cooling Coil Design Setpoint {C}
!     HotWater,                !- Heating Coil Type
!     ,                        !- Heating Coil Availability Schedule Name
!     50,                      !- Heating Coil Design Setpoint {C}
!     ,                        !- Dedicated Outdoor Air System Name
!     SupplyAirTemperature,    !- Zone Cooling Design Supply Air Temperature Input Method
!     11.11,                   !- Zone Cooling Design Supply Air Temperature Difference {deltaC}
!     SupplyAirTemperature,    !- Zone Heating Design Supply Air Temperature Input Method
!     30,                      !- Zone Heating Design Supply Air Temperature Difference {deltaC}
!     ,                        !- Design Specification Outdoor Air Object Name
!     ,                        !- Design Specification Zone Air Distribution Object Name
!     ,                        !- Capacity Control Method
!     0.33,                    !- Low Speed Supply Air Flow Ratio
!     0.66,                    !- Medium Speed Supply Air Flow Ratio
!     ,                        !- Outdoor Air Schedule Name
!     None,                    !- Baseboard Heating Type
!     ,                        !- Baseboard Heating Availability Schedule Name
!     autosize;                !- Baseboard Heating Capacity {W}
! 
! HVACTemplate:Plant:ChilledWaterLoop,
!     chilled water,           !- Name
!     Medium Office Bldg Occ,  !- Pump Schedule Name
!     Intermittent,            !- Pump Control Type
!     Default,                 !- Chiller Plant Operation Scheme Type
!     ,                        !- Chiller Plant Equipment Operation Schemes Name
!     ,                        !- Chilled Water Setpoint Schedule Name
!     7.22,                    !- Chilled Water Design Setpoint {C}
!     VariablePrimaryNoSecondary,  !- Chilled Water Pump Configuration
!     179352,                  !- Primary Chilled Water Pump Rated Head {Pa}
!     179352,                  !- Secondary Chilled Water Pump Rated Head {Pa}
!     Default,                 !- Condenser Plant Operation Scheme Type
!     ,                        !- Condenser Equipment Operation Schemes Name
!     ,                        !- Condenser Water Temperature Control Type
!     ,                        !- Condenser Water Setpoint Schedule Name
!     29.4,                    !- Condenser Water Design Setpoint {C}
!     179352,                  !- Condenser Water Pump Rated Head {Pa}
!     None,                    !- Chilled Water Setpoint Reset Type
!     12.2,                    !- Chilled Water Setpoint at Outdoor Dry-Bulb Low {C}
!     15.6,                    !- Chilled Water Reset Outdoor Dry-Bulb Low {C}
!     6.7,                     !- Chilled Water Setpoint at Outdoor Dry-Bulb High {C}
!     26.7,                    !- Chilled Water Reset Outdoor Dry-Bulb High {C}
!     SinglePump,              !- Chilled Water Primary Pump Type
!     SinglePump,              !- Chilled Water Secondary Pump Type
!     SinglePump,              !- Condenser Water Pump Type
!     Yes,                     !- Chilled Water Supply Side Bypass Pipe
!     Yes,                     !- Chilled Water Demand Side Bypass Pipe
!     Yes,                     !- Condenser Water Supply Side Bypass Pipe
!     Yes,                     !- Condenser Water Demand Side Bypass Pipe
!     Water,                   !- Fluid Type
!     6.67,                    !- Loop Design Delta Temperature {deltaC}
!     ,                        !- Minimum Outdoor Dry Bulb Temperature {C}
!     SequentialLoad,          !- Chilled Water Load Distribution Scheme
!     SequentialLoad;          !- Condenser Water Load Distribution Scheme
! 
! HVACTemplate:Plant:Chiller,
!     chiller,                 !- Name
!     DistrictChilledWater,    !- Chiller Type
!     autosize,                !- Capacity {W}
!     1,                       !- Nominal COP {W/W}
!     WaterCooled,             !- Condenser Type
!     ,                        !- Priority
!     1,                       !- Sizing Factor
!     ,                        !- Minimum Part Load Ratio
!     1,                       !- Maximum Part Load Ratio
!     1,                       !- Optimum Part Load Ratio
!     0.25,                    !- Minimum Unloading Ratio
!     5;                       !- Leaving Chilled Water Lower Temperature Limit {C}
! 
! HVACTemplate:Plant:HotWaterLoop,
!     hot water,               !- Name
!     Medium Office Bldg Occ,  !- Pump Schedule Name
!     Intermittent,            !- Pump Control Type
!     Default,                 !- Hot Water Plant Operation Scheme Type
!     ,                        !- Hot Water Plant Equipment Operation Schemes Name
!     ,                        !- Hot Water Setpoint Schedule Name
!     82,                      !- Hot Water Design Setpoint {C}
!     VariableFlow,            !- Hot Water Pump Configuration
!     179352,                  !- Hot Water Pump Rated Head {Pa}
!     None,                    !- Hot Water Setpoint Reset Type
!     82.2,                    !- Hot Water Setpoint at Outdoor Dry-Bulb Low {C}
!     -6.7,                    !- Hot Water Reset Outdoor Dry-Bulb Low {C}
!     65.6,                    !- Hot Water Setpoint at Outdoor Dry-Bulb High {C}
!     10,                      !- Hot Water Reset Outdoor Dry-Bulb High {C}
!     SinglePump,              !- Hot Water Pump Type
!     Yes,                     !- Supply Side Bypass Pipe
!     Yes,                     !- Demand Side Bypass Pipe
!     Water,                   !- Fluid Type
!     11,                      !- Loop Design Delta Temperature {deltaC}
!     ,                        !- Maximum Outdoor Dry Bulb Temperature {C}
!     SequentialLoad;          !- Load Distribution Scheme
! 
! HVACTemplate:Plant:Boiler,
!     boiler,                  !- Name
!     DistrictHotWater,        !- Boiler Type
!     autosize,                !- Capacity {W}
!     0.8,                     !- Efficiency
!     ,                        !- Fuel Type
!     ,                        !- Priority
!     1,                       !- Sizing Factor
!     ,                        !- Minimum Part Load Ratio
!     1.1,                     !- Maximum Part Load Ratio
!     1,                       !- Optimum Part Load Ratio
!     100;                     !- Water Outlet Upper Temperature Limit {C}

Version,9.0;
Timestep,6;

LifeCycleCost:Parameters,
    Life Cycle Cost Parameters,  !- Name
    EndOfYear,               !- Discounting Convention
    ConstantDollar,          !- Inflation Approach
    0.03,                    !- Real Discount Rate
    ,                        !- Nominal Discount Rate
    ,                        !- Inflation
    ,                        !- Base Date Month
    2011,                    !- Base Date Year
    ,                        !- Service Date Month
    2011,                    !- Service Date Year
    25,                      !- Length of Study Period in Years
    ,                        !- Tax rate
    None;                    !- Depreciation Method

LifeCycleCost:UsePriceEscalation,
    U.S. Avg  Commercial-Electricity,  !- LCC Price Escalation Name
    Electricity,             !- Resource
    2011,                    !- Escalation Start Year
    January,                 !- Escalation Start Month
    0.9838,                  !- Year 1 Escalation
    0.9730,                  !- Year 2 Escalation
    0.9632,                  !- Year 3 Escalation
    0.9611,                  !- Year 4 Escalation
    0.9571,                  !- Year 5 Escalation
    0.9553,                  !- Year 6 Escalation
    0.9539,                  !- Year 7 Escalation
    0.9521,                  !- Year 8 Escalation
    0.9546,                  !- Year 9 Escalation
    0.9550,                  !- N11
    0.9553,                  !- N12
    0.9564,                  !- N13
    0.9575,                  !- N14
    0.9596,                  !- N15
    0.9618,                  !- N16
    0.9614,                  !- N17
    0.9618,                  !- N18
    0.9618,                  !- N19
    0.9593,                  !- N20
    0.9589,                  !- N21
    0.9607,                  !- N22
    0.9625,                  !- N23
    0.9650,                  !- N24
    0.9708,                  !- N25
    0.9751,                  !- N26
    0.9762,                  !- N27
    0.9766,                  !- N28
    0.9766,                  !- N29
    0.9769,                  !- N30
    0.9773;                  !- N31

LifeCycleCost:UsePriceEscalation,
    U.S. Avg  Commercial-Distillate Oil,  !- LCC Price Escalation Name
    FuelOil#1,               !- Resource
    2011,                    !- Escalation Start Year
    January,                 !- Escalation Start Month
    0.9714,                  !- Year 1 Escalation
    0.9730,                  !- Year 2 Escalation
    0.9942,                  !- Year 3 Escalation
    1.0164,                  !- Year 4 Escalation
    1.0541,                  !- Year 5 Escalation
    1.0928,                  !- Year 6 Escalation
    1.1267,                  !- Year 7 Escalation
    1.1580,                  !- Year 8 Escalation
    1.1792,                  !- Year 9 Escalation
    1.1967,                  !- N11
    1.2200,                  !- N12
    1.2333,                  !- N13
    1.2566,                  !- N14
    1.2709,                  !- N15
    1.2826,                  !- N16
    1.2985,                  !- N17
    1.3102,                  !- N18
    1.3250,                  !- N19
    1.3261,                  !- N20
    1.3282,                  !- N21
    1.3324,                  !- N22
    1.3356,                  !- N23
    1.3431,                  !- N24
    1.3510,                  !- N25
    1.3568,                  !- N26
    1.3606,                  !- N27
    1.3637,                  !- N28
    1.3674,                  !- N29
    1.3706,                  !- N30
    1.3743;                  !- N31

LifeCycleCost:UsePriceEscalation,
    U.S. Avg  Commercial-Residual Oil,  !- LCC Price Escalation Name
    FuelOil#2,               !- Resource
    2011,                    !- Escalation Start Year
    January,                 !- Escalation Start Month
    0.8469,                  !- Year 1 Escalation
    0.8257,                  !- Year 2 Escalation
    0.8681,                  !- Year 3 Escalation
    0.8988,                  !- Year 4 Escalation
    0.9289,                  !- Year 5 Escalation
    0.9604,                  !- Year 6 Escalation
    0.9897,                  !- Year 7 Escalation
    1.0075,                  !- Year 8 Escalation
    1.0314,                  !- Year 9 Escalation
    1.0554,                  !- N11
    1.0861,                  !- N12
    1.1278,                  !- N13
    1.1497,                  !- N14
    1.1620,                  !- N15
    1.1743,                  !- N16
    1.1852,                  !- N17
    1.1948,                  !- N18
    1.2037,                  !- N19
    1.2071,                  !- N20
    1.2119,                  !- N21
    1.2139,                  !- N22
    1.2194,                  !- N23
    1.2276,                  !- N24
    1.2365,                  !- N25
    1.2420,                  !- N26
    1.2461,                  !- N27
    1.2509,                  !- N28
    1.2550,                  !- N29
    1.2591,                  !- N30
    1.2638;                  !- N31

LifeCycleCost:UsePriceEscalation,
    U.S. Avg  Commercial-Natural gas,  !- LCC Price Escalation Name
    NaturalGas,              !- Resource
    2011,                    !- Escalation Start Year
    January,                 !- Escalation Start Month
    0.9823,                  !- Year 1 Escalation
    0.9557,                  !- Year 2 Escalation
    0.9279,                  !- Year 3 Escalation
    0.9257,                  !- Year 4 Escalation
    0.9346,                  !- Year 5 Escalation
    0.9412,                  !- Year 6 Escalation
    0.9512,                  !- Year 7 Escalation
    0.9645,                  !- Year 8 Escalation
    0.9856,                  !- Year 9 Escalation
    1.0067,                  !- N11
    1.0222,                  !- N12
    1.0410,                  !- N13
    1.0610,                  !- N14
    1.0787,                  !- N15
    1.0942,                  !- N16
    1.1098,                  !- N17
    1.1220,                  !- N18
    1.1308,                  !- N19
    1.1386,                  !- N20
    1.1486,                  !- N21
    1.1619,                  !- N22
    1.1763,                  !- N23
    1.1918,                  !- N24
    1.2118,                  !- N25
    1.2284,                  !- N26
    1.2439,                  !- N27
    1.2605,                  !- N28
    1.2772,                  !- N29
    1.2938,                  !- N30
    1.3115;                  !- N31

LifeCycleCost:UsePriceEscalation,
    U.S. Avg  Commercial-Coal,  !- LCC Price Escalation Name
    Coal,                    !- Resource
    2011,                    !- Escalation Start Year
    January,                 !- Escalation Start Month
    0.9970,                  !- Year 1 Escalation
    1.0089,                  !- Year 2 Escalation
    1.0089,                  !- Year 3 Escalation
    0.9941,                  !- Year 4 Escalation
    0.9941,                  !- Year 5 Escalation
    1.0000,                  !- Year 6 Escalation
    1.0030,                  !- Year 7 Escalation
    1.0059,                  !- Year 8 Escalation
    1.0089,                  !- Year 9 Escalation
    1.0119,                  !- N11
    1.0148,                  !- N12
    1.0178,                  !- N13
    1.0208,                  !- N14
    1.0267,                  !- N15
    1.0297,                  !- N16
    1.0356,                  !- N17
    1.0415,                  !- N18
    1.0534,                  !- N19
    1.0564,                  !- N20
    1.0593,                  !- N21
    1.0653,                  !- N22
    1.0712,                  !- N23
    1.0742,                  !- N24
    1.0801,                  !- N25
    1.0831,                  !- N26
    1.0831,                  !- N27
    1.0861,                  !- N28
    1.0890,                  !- N29
    1.0920,                  !- N30
    1.0950;                  !- N31

Building,
    Building 1,              !- Name
    ,                        !- North Axis {deg}
    ,                        !- Terrain
    ,                        !- Loads Convergence Tolerance Value
    ,                        !- Temperature Convergence Tolerance Value {deltaC}
    ,                        !- Solar Distribution
    ,                        !- Maximum Number of Warmup Days
    ;                        !- Minimum Number of Warmup Days

Zone,
    Thermal Zone 1,          !- Name
    -0,                      !- Direction of Relative North {deg}
    0, 30, 0;                           !- X,Y,Z  {m}

BuildingSurface:Detailed,
    Surface 13,              !- Name
    Floor,                   !- Surface Type
    ExtSlabCarpet 4in ClimateZone 1-8,  !- Construction Name
    Thermal Zone 1,          !- Zone Name
    Ground,                  !- Outside Boundary Condition
    ,                        !- Outside Boundary Condition Object
    NoSun,                   !- Sun Exposure
    NoWind,                  !- Wind Exposure
    ,                        !- View Factor to Ground
    ,                        !- Number of Vertices
    0, 0, 0,                            !- X,Y,Z  1 {m}
    0, -9.99999999999999, 0,            !- X,Y,Z  2 {m}
    -15, -9.99999999999999, 0,          !- X,Y,Z  3 {m}
    -15, 0, 0;                          !- X,Y,Z  4 {m}

BuildingSurface:Detailed,
    Surface 14,              !- Name
    Wall,                    !- Surface Type
    Interior Wall,           !- Construction Name
    Thermal Zone 1,          !- Zone Name
    Surface,                 !- Outside Boundary Condition
    Surface 25,              !- Outside Boundary Condition Object
    NoSun,                   !- Sun Exposure
    NoWind,                  !- Wind Exposure
    ,                        !- View Factor to Ground
    ,                        !- Number of Vertices
    0, -9.99999999999999, 3,            !- X,Y,Z  1 {m}
    0, -9.99999999999999, 0,            !- X,Y,Z  2 {m}
    0, 0, 0,                            !- X,Y,Z  3 {m}
    0, 0, 3;                            !- X,Y,Z  4 {m}

BuildingSurface:Detailed,
    Surface 15,              !- Name
    Wall,                    !- Surface Type
    ASHRAE 189.1-2009 ExtWall Mass ClimateZone 4,  !- Construction Name
    Thermal Zone 1,          !- Zone Name
    Outdoors,                !- Outside Boundary Condition
    ,                        !- Outside Boundary Condition Object
    SunExposed,              !- Sun Exposure
    WindExposed,             !- Wind Exposure
    ,                        !- View Factor to Ground
    ,                        !- Number of Vertices
    -15, -9.99999999999999, 3,          !- X,Y,Z  1 {m}
    -15, -9.99999999999999, 0,          !- X,Y,Z  2 {m}
    0, -9.99999999999999, 0,            !- X,Y,Z  3 {m}
    0, -9.99999999999999, 3;            !- X,Y,Z  4 {m}

FenestrationSurface:Detailed,
    Sub Surface 7,           !- Name
    Window,                  !- Surface Type
    ASHRAE 189.1-2009 ExtWindow ClimateZone 4-5,  !- Construction Name
    Surface 15,              !- Building Surface Name
    ,                        !- Outside Boundary Condition Object
    ,                        !- View Factor to Ground
    ,                        !- Frame and Divider Name
    ,                        !- Multiplier
    ,                        !- Number of Vertices
    -14.9746, -9.99999999999999, 1.96407781018382,
                                        !- X,Y,Z  1 {m}
    -14.9746, -9.99999999999999, 0.76,  !- X,Y,Z  2 {m}
    -0.0254, -9.99999999999999, 0.76,   !- X,Y,Z  3 {m}
    -0.0254, -9.99999999999999, 1.96407781018382;
                                        !- X,Y,Z  4 {m}

BuildingSurface:Detailed,
    Surface 16,              !- Name
    Wall,                    !- Surface Type
    ASHRAE 189.1-2009 ExtWall Mass ClimateZone 4,  !- Construction Name
    Thermal Zone 1,          !- Zone Name
    Outdoors,                !- Outside Boundary Condition
    ,                        !- Outside Boundary Condition Object
    SunExposed,              !- Sun Exposure
    WindExposed,             !- Wind Exposure
    ,                        !- View Factor to Ground
    ,                        !- Number of Vertices
    -15, 0, 3,                          !- X,Y,Z  1 {m}
    -15, 0, 0,                          !- X,Y,Z  2 {m}
    -15, -9.99999999999999, 0,          !- X,Y,Z  3 {m}
    -15, -9.99999999999999, 3;          !- X,Y,Z  4 {m}

FenestrationSurface:Detailed,
    Sub Surface 6,           !- Name
    Window,                  !- Surface Type
    ASHRAE 189.1-2009 ExtWindow ClimateZone 4-5,  !- Construction Name
    Surface 16,              !- Building Surface Name
    ,                        !- Outside Boundary Condition Object
    ,                        !- View Factor to Ground
    ,                        !- Frame and Divider Name
    ,                        !- Multiplier
    ,                        !- Number of Vertices
    -15, -0.0254, 1.96612712579906,     !- X,Y,Z  1 {m}
    -15, -0.0254, 0.76,                 !- X,Y,Z  2 {m}
    -15, -9.97459999999999, 0.76,       !- X,Y,Z  3 {m}
    -15, -9.97459999999999, 1.96612712579906;
                                        !- X,Y,Z  4 {m}

BuildingSurface:Detailed,
    Surface 17,              !- Name
    Wall,                    !- Surface Type
    ASHRAE 189.1-2009 ExtWall Mass ClimateZone 4,  !- Construction Name
    Thermal Zone 1,          !- Zone Name
    Outdoors,                !- Outside Boundary Condition
    ,                        !- Outside Boundary Condition Object
    SunExposed,              !- Sun Exposure
    WindExposed,             !- Wind Exposure
    ,                        !- View Factor to Ground
    ,                        !- Number of Vertices
    0, 0, 3,                            !- X,Y,Z  1 {m}
    0, 0, 0,                            !- X,Y,Z  2 {m}
    -15, 0, 0,                          !- X,Y,Z  3 {m}
    -15, 0, 3;                          !- X,Y,Z  4 {m}

FenestrationSurface:Detailed,
    Sub Surface 5,           !- Name
    Window,                  !- Surface Type
    ASHRAE 189.1-2009 ExtWindow ClimateZone 4-5,  !- Construction Name
    Surface 17,              !- Building Surface Name
    ,                        !- Outside Boundary Condition Object